%>-<><>---<>-------<>--------<>--------<>--------<>--------<>--------<>--------<
%>-<> Input for the IEA15MW reference wind turbine
%>-<><>---<>-------<>--------<>--------<>--------<>--------<>--------<>--------<

% Comments are identified by %
% Follows the same conventions as OpenFAST (AeroDyn, ElastoDyn and Inflow)
Hydro   0 % 1: HD in initial position + HS matrix; 2: HD in instantaneous position with linear wave kinematics + HS in instantaneous position; 3: HD in instantaneous position with non-linear wave kinematics + HS in instantaneous position
Aero    1
Moor    0
DOFS 0 0 0 0 0 0

TimeStep    0.1                % Time step, in seconds
PrintStep   0.1
TimeTotal  	120					% Total simulation time, in secods
TimeRamp    0                 % Numerical ramp, in seconds

%%-----------------------------------------------------------------------------%%
%%------------------------------ ENVIRONMENT ----------------------------------%%
%%-----------------------------------------------------------------------------%%
Grav		9.81
AirDens     1.225 % Densidade do ar
WindHeight  150   % Altura em que o vento foi medido
UseTipLoss  1     % Usar correcao de tip loss no BEMT
UseHubLoss  1     % Usar correcao de HUB loss no BEMT


%=== OPCOES DE VENTO
%=== APENAS UMA PODE ESTAR ATIVA

%> 1) Vento uniforme constante
%WindVel     9.0   % Medido em WindHeight
%WindDir     180   % Direcao do vento. 0 eh vindo de -x e indo para +x; 90 de +y para -y; 180 de +x para -x; 270 de -y para +y
%WindExp     0     % Expoente do perfil de vento

%> 2) Vento uniforme variável (rajada e vento senoidal)
%WindFile    ./test/verifyAero/BT05.wnd

%> 2) Vento turbulento (reconhece se é turbulento ou uniforme pela extensão do arquivo)
WindDir     180
WindFile    ./test/verifyAero/BT04.bts
%==== FIM OPCOES DE VENTO


% Posicao do centro em que os movimentos estao sendo referenciados.
% Esse input era de outra classe, daí ficou meio perdido aqui.
% Por enquanto, só a coordenada Z tá sendo considerada pro 
% cálculo da posição e velocidade de cada nó das pás, entao o CoG
% precisaria estar alinhado com a torre.
FloaterCoG		0,0,0 %Em relação a linha d'agua


NODES
1,0,0,150
END

%%-----------------------------------------------------------------------------%%
%%---------------------------- RNA DESCRIPTION --------------------------------%%
%%-----------------------------------------------------------------------------%%
RotTilt    -6.0    % Rotor tilt angle (degrees)
RotYaw      180    % Rotor yaw angle (degrees)
NumBlades   3      % Number of blades
BldPitch    0.10   % Blade pitch angle (degrees)
BldPrecone -4.0    % Blade coning angle (degrees)

HubRadius   3.0    % Hub radius (m)
HubHeight   150    % Hub height above ground level [onshore] or MSL [offshore] (meters) (NOTE que é diferente do Tower Height do OpenFAST!)
Overhang   -11.075 % Distance from yaw axis to rotor apex (meters)



%%-----------------------------------------------------------------------------%%
%%-------------------------- BLADES DESCRIPTION -------------------------------%%
%%-----------------------------------------------------------------------------%%
Blades_aero  % Aerodynamic properties of the blades
%   BlSpn         BlCrvAC       BlSwpAC        BlCrvAng      BlTwist       BlChord          BlAFID - Airfoil data the local blade node is associated with (1 to numAirfoils)
%    (m)            (m)           (m)           (deg)         (deg)          (m)             (-)
 0.000000000000000e+00  0.000000000000000e+00  0.000000000000000e+00  4.389598567857100e-01  1.559455301971172e+01  5.200000000000000e+00        1
 2.340000000000000e+00  1.792725442100923e-02  0.000000000000000e+00  5.032657169918083e-01  1.559105026258913e+01  5.208280051053228e+00        2
 4.680000000000000e+00  4.110692427421048e-02  0.000000000000000e+00  6.308553568297277e-01  1.542808288705693e+01  5.235714686841762e+00        3
 7.020000000000000e+00  6.945536768748266e-02  0.000000000000000e+00  7.335329065217842e-01  1.498668187913840e+01  5.288938619667076e+00        4
 9.359999999999999e+00  1.010212888733921e-01  0.000000000000000e+00  7.884297977029056e-01  1.432158034416253e+01  5.360587950371896e+00        5
 1.170000000000000e+01  1.338533920445052e-01  0.000000000000000e+00  7.909585172161996e-01  1.348751138745829e+01  5.443298779798948e+00        6
 1.462500000000000e+01  1.737014122489205e-01  0.000000000000000e+00  7.327637065640680e-01  1.229069721992214e+01  5.551024109038494e+00        7
 1.755000000000000e+01  2.086678175525200e-01  0.000000000000000e+00  6.223844458530188e-01  1.102229252935764e+01  5.650144322056736e+00        8
 1.977698541208247e+01  2.296645661376480e-01  0.000000000000000e+00  4.537499627775453e-01  1.007455100521850e+01  5.710964180985916e+00        9
 2.200397082416493e+01  2.439403627159931e-01  0.000000000000000e+00  2.591924634298315e-01  9.194457415112664e+00  5.752111033293940e+00       10
 2.423095623624740e+01  2.498132008590583e-01  0.000000000000000e+00  8.141948146465851e-02  8.429191400183106e+00  5.767237237684651e+00       11
 2.645794164832986e+01  2.502696224973349e-01  0.000000000000000e+00 -5.201336270782935e-03  7.777140178454876e+00  5.754540379641527e+00       12
 2.868492706041233e+01  2.494088674131781e-01  0.000000000000000e+00 -3.406772178568601e-02  7.182453068336759e+00  5.702616552569126e+00       13
 3.113238085174112e+01  2.474902295602668e-01  0.000000000000000e+00 -5.578985889668429e-02  6.526991264456793e+00  5.600650141179936e+00       14
 3.357983464306991e+01  2.446426147761379e-01  0.000000000000000e+00 -7.615697459071377e-02  5.894967665228040e+00  5.463153391746188e+00       15
 3.602728843439870e+01  2.409839694867318e-01  0.000000000000000e+00 -9.543755013755111e-02  5.294241247126913e+00  5.309456651571882e+00       16
 3.847474222572749e+01  2.364891735317261e-01  0.000000000000000e+00 -1.077434001298583e-01  4.734510589122642e+00  5.148771194775275e+00       17
 4.105659048741643e+01  2.315264878237667e-01  0.000000000000000e+00 -1.480006043120704e-01  4.200509221861605e+00  4.991052530953460e+00       18
 4.363843874910536e+01  2.231508550279065e-01  0.000000000000000e+00 -2.942923602503220e-01  3.725899877374307e+00  4.849825861125237e+00       19
 4.622028701079431e+01  2.050039451777621e-01  0.000000000000000e+00 -5.513815357366169e-01  3.306980159403296e+00  4.727623031975457e+00       20
 4.880213527248324e+01  1.734591849365768e-01  0.000000000000000e+00 -8.953005634818914e-01  2.919972991579771e+00  4.604744127582399e+00       21
 5.138398353417219e+01  1.243196031004582e-01  0.000000000000000e+00 -1.185431256004288e+00  2.561013760569935e+00  4.482053325831189e+00       22
 5.368869775367514e+01  7.236499116496864e-02  0.000000000000000e+00 -1.374054599116387e+00  2.261976958738843e+00  4.373759436309791e+00       23
 5.599341197317808e+01  1.378791448434181e-02  0.000000000000000e+00 -1.516545898214346e+00  1.980308613217369e+00  4.267298674782820e+00       24
 5.829812619268102e+01 -4.962643021848042e-02  0.000000000000000e+00 -1.593149607978640e+00  1.713584420221966e+00  4.162982209701337e+00       25
 6.060284041218397e+01 -1.143639830605745e-01  0.000000000000000e+00 -1.668831089428184e+00  1.457959216148460e+00  4.061706722205011e+00       26
 6.290755463168692e+01 -1.838644133413873e-01  0.000000000000000e+00 -1.909518357572825e+00  1.215627353698105e+00  3.963536198880925e+00       27
 6.526010287719268e+01 -2.695496189370229e-01  0.000000000000000e+00 -2.247888332111739e+00  9.878931973599971e-01  3.866942578335688e+00       28
 6.761265112269844e+01 -3.684123593201381e-01  0.000000000000000e+00 -2.582649071388314e+00  7.751486517583764e-01  3.773008482150572e+00       29
 6.996519936820421e+01 -4.815634639349944e-01  0.000000000000000e+00 -2.865294558288838e+00  5.753772042113692e-01  3.681310369877000e+00       30
 7.231774761370995e+01 -6.036106395386901e-01  0.000000000000000e+00 -3.067504785280989e+00  3.801903461857860e-01  3.590736963146067e+00       31
 7.467029585921573e+01 -7.333448728858328e-01  0.000000000000000e+00 -3.208584670401211e+00  1.859865520515259e-01  3.500781512082179e+00       32
 7.690225798158134e+01 -8.602107347043737e-01  0.000000000000000e+00 -3.290027380374246e+00 -1.895066028803559e-03  3.415119535682277e+00       33
 7.913422010394696e+01 -9.895306443763798e-01  0.000000000000000e+00 -3.333478315696412e+00 -2.032949456984741e-01  3.328844727050613e+00       34
 8.136618222631259e+01 -1.119776122673767e+00  0.000000000000000e+00 -3.432368423138003e+00 -4.252875829492346e-01  3.241551330883462e+00       35
 8.359814434867820e+01 -1.256787151546890e+00  0.000000000000000e+00 -3.619769014840467e+00 -6.835362560574688e-01  3.155076129554687e+00       36
 8.583010647104382e+01 -1.401605396595971e+00  0.000000000000000e+00 -3.806658744089384e+00 -9.818668004993735e-01  3.069529014714899e+00       37
 8.806206859340944e+01 -1.553146463694890e+00  0.000000000000000e+00 -3.974642514158079e+00 -1.283187977449598e+00  2.983961316513787e+00       38
 9.029403071577507e+01 -1.711022186839844e+00  0.000000000000000e+00 -4.157561213452237e+00 -1.575204470207721e+00  2.898006382996998e+00       39
 9.360000000000001e+01 -1.954643553943418e+00  0.000000000000000e+00 -4.282127409053577e+00 -1.936867726960525e+00  2.768221228578391e+00       40
 9.579375000000002e+01 -2.121673387702402e+00  0.000000000000000e+00 -4.415936480162901e+00 -2.107559875105575e+00  2.679571699358601e+00       41
 9.798750000000000e+01 -2.292465037138542e+00  0.000000000000000e+00 -4.515395367110078e+00 -2.166589245326676e+00  2.588234998923033e+00       42
 1.001812500000000e+02 -2.467087944121202e+00  0.000000000000000e+00 -4.647677691199882e+00 -2.176064619564126e+00  2.493925003782623e+00       43
 1.023750000000000e+02 -2.647976917310403e+00  0.000000000000000e+00 -4.809336627570893e+00 -2.161185304881369e+00  2.397357498996977e+00       44
 1.045687500000000e+02 -2.834936933971896e+00  0.000000000000000e+00 -4.968453379562535e+00 -2.118517957471362e+00  2.298574617144009e+00       45
 1.067625000000000e+02 -3.027966149204049e+00  0.000000000000000e+00 -5.119883153423658e+00 -2.048882314259705e+00  2.197674647152629e+00       46
 1.089562500000000e+02 -3.226477188906264e+00  0.000000000000000e+00 -5.267217867902559e+00 -1.951426912022273e+00  2.094746664459376e+00       47
 1.111500000000000e+02 -3.430742432797884e+00  0.000000000000000e+00 -5.432171356025582e+00 -1.815172386244977e+00  1.989485429115948e+00       48
 1.140750000000000e+02 -3.711055444100119e+00  0.000000000000000e+00 -5.584230840524383e+00 -1.567929958032109e+00  1.848333283013637e+00       49
 1.170000000000000e+02 -3.999999999999996e+00  0.000000000000000e+00 -5.669178789134813e+00 -1.242387706272969e+00  5.000000000000001e-01       50
END

% Airfoils that describe the blades
Airfoil_data
%  Alpha        Cl      Cd        Cm
%  (deg)        (-)     (-)       (-)
-1.80000000000000e+02  9.99999999999994e-05  3.50000000000000e-01 -1.00000000000000e-04
-1.77714285740401e+02  1.00000000000003e-04  3.50000000000000e-01 -1.00000000000003e-04
-1.75428571400002e+02  9.99999999999890e-05  3.50000000000000e-01 -9.99999999999890e-05
-1.73142857116900e+02  9.99999999999890e-05  3.50000000000000e-01 -9.99999999999890e-05
-1.70857160423602e+02  9.99999999999890e-05  3.50000000000000e-01 -9.99999999999890e-05
-1.68571631778825e+02  9.99999999999890e-05  3.50000000000000e-01 -9.99999999999890e-05
-1.66285714267592e+02  9.99999999999890e-05  3.50000000000000e-01 -9.99999999999890e-05
-1.63999999984490e+02  9.99999999999890e-05  3.50000000000000e-01 -9.99999999999890e-05
-1.61714472886699e+02  9.99999999999890e-05  3.50000000000000e-01 -9.99999999999890e-05
-1.59428371284127e+02  9.99999999999890e-05  3.50000000000000e-01 -9.99999999999890e-05
-1.57142842639350e+02  9.99999999999890e-05  3.50000000000000e-01 -9.99999999999890e-05
-1.54857313994574e+02  9.99999999999890e-05  3.50000000000000e-01 -9.99999999999890e-05
-1.52571428568978e+02  9.99999999999890e-05  3.50000000000000e-01 -9.99999999999890e-05
-1.50285714285875e+02  9.99999999999890e-05  3.50000000000000e-01 -9.99999999999890e-05
-1.48000000002773e+02  9.99999999999890e-05  3.50000000000000e-01 -9.99999999999890e-05
-1.43857142836002e+02  1.00000000000044e-04  3.50000000000000e-01 -9.99999999999890e-05
-1.39714285726526e+02  1.00000000000044e-04  3.50000000000000e-01 -9.99999999999890e-05
-1.35571428559755e+02  9.99999999999890e-05  3.50000000000000e-01 -9.99999999999890e-05
-1.31428571450280e+02  9.99999999999890e-05  3.50000000000000e-01 -9.99999999999890e-05
-1.27285714283509e+02  9.99999999999890e-05  3.50000000000000e-01 -9.99999999999890e-05
-1.23142857116737e+02  9.99999999999890e-05  3.50000000000000e-01 -9.99999999999890e-05
-1.19000000007262e+02  9.99999999999890e-05  3.50000000000000e-01 -9.99999999999890e-05
-1.14857142840491e+02  9.99999999999890e-05  3.50000000000000e-01 -9.99999999999890e-05
-1.10714285731016e+02  9.99999999999890e-05  3.50000000000000e-01 -9.99999999999890e-05
-1.06571428564245e+02  9.99999999999890e-05  3.50000000000000e-01 -9.99999999999890e-05
-1.02428571454769e+02  9.99999999999890e-05  3.50000000000000e-01 -9.99999999999890e-05
-9.82857142879980e+01  9.99999999999890e-05  3.50000000000000e-01 -9.99999999999890e-05
-9.41428571212269e+01  1.00000000000003e-04  3.50000000000000e-01 -9.99999999999890e-05
-9.00000000117516e+01  1.00000000000000e-04  3.50000000000000e-01 -9.99999999999890e-05
-8.58571428449804e+01  1.00000000000003e-04  3.50000000000000e-01 -9.99999999999890e-05
-8.17142857355051e+01  9.99999999999890e-05  3.50000000000000e-01 -9.99999999999890e-05
-7.75714285687340e+01  9.99999999999890e-05  3.50000000000000e-01 -9.99999999999890e-05
-7.34285714019628e+01  9.99999999999890e-05  3.50000000000000e-01 -9.99999999999890e-05
-6.92857142924875e+01  9.99999999999890e-05  3.50000000000000e-01 -9.99999999999890e-05
-6.51428571257163e+01  9.99999999999890e-05  3.50000000000000e-01 -9.99999999999890e-05
-6.10000000162410e+01  9.99999999999890e-05  3.50000000000000e-01 -9.99999999999890e-05
-5.68571428494699e+01  9.99999999999890e-05  3.50000000000000e-01 -1.00000000000003e-04
-5.27142857399945e+01  9.99999999999890e-05  3.50000000000000e-01 -1.00000000000003e-04
-4.85714285732234e+01  9.99999999999890e-05  3.50000000000000e-01 -1.00000000000003e-04
-4.44285714064523e+01  9.99999999999890e-05  3.50000000000000e-01 -1.00000000000003e-04
-4.02857142969769e+01  9.99999999999890e-05  3.50000000000000e-01 -1.00000000000003e-04
-3.61428571302058e+01  9.99999999999890e-05  3.50000000000000e-01 -1.00000000000003e-04
-3.20000000207304e+01  9.99999999999890e-05  3.50000000000000e-01 -1.00000000000003e-04
-2.80000000253011e+01  9.99999999999890e-05  3.50000000000000e-01 -1.00000000000003e-04
-2.39999999725760e+01  9.99999999999890e-05  3.50000000000000e-01 -9.99999999999994e-05
-1.99999999771467e+01  9.99999999999890e-05  3.50000000000000e-01 -1.00000000000000e-04
-1.79999999794320e+01  9.99999999999890e-05  3.50000000000000e-01 -9.99999999999994e-05
-1.59999999817173e+01  1.00000000000100e-04  3.50000000000000e-01 -9.99999999999994e-05
-1.39999999840027e+01  1.00000000000100e-04  3.50000000000000e-01 -9.99999999999994e-05
-1.19999999862880e+01  9.99999999999890e-05  3.50000000000000e-01 -9.99999999999994e-05
-9.99999998857333e+00  9.99999999999890e-05  3.50000000000000e-01 -9.99999999999994e-05
-7.99999999085867e+00  9.99999999999890e-05  3.50000000000000e-01 -1.00000000000003e-04
-5.99999999314400e+00  9.99999999999890e-05  3.50000000000000e-01 -1.00000000000003e-04
-3.99999999542933e+00  1.00000000000003e-04  3.50000000000000e-01 -1.00000000000003e-04
-1.99999999771467e+00  9.99999999999890e-05  3.50000000000000e-01 -1.00000000000003e-04
-1.00000002750522e+00  9.99999999999890e-05  3.50000000000000e-01 -1.00000000000003e-04
 0.00000000000000e+00  9.99999999999890e-05  3.50000000000000e-01 -1.00000000000003e-04
 1.00000002750522e+00  9.99999999999890e-05  3.50000000000000e-01 -1.00000000000003e-04
 1.99999999771467e+00  9.99999999999890e-05  3.50000000000000e-01 -1.00000000000003e-04
 3.00000002521989e+00  9.99999999999890e-05  3.50000000000000e-01 -1.00000000000003e-04
 3.99999999542933e+00  9.99999999999890e-05  3.50000000000000e-01 -1.00000000000003e-04
 5.00000002293456e+00  9.99999999999890e-05  3.50000000000000e-01 -1.00000000000003e-04
 5.99999999314400e+00  9.99999999999890e-05  3.50000000000000e-01 -1.00000000000003e-04
 7.00000002064922e+00  9.99999999999890e-05  3.50000000000000e-01 -1.00000000000003e-04
 7.99999999085867e+00  9.99999999999890e-05  3.50000000000000e-01 -9.99999999999890e-05
 9.00000001836389e+00  9.99999999999890e-05  3.50000000000000e-01 -9.99999999999890e-05
 9.99999998857333e+00  9.99999999999890e-05  3.50000000000000e-01 -9.99999999999890e-05
 1.10000000160786e+01  9.99999999999890e-05  3.50000000000000e-01 -1.00000000000003e-04
 1.19999999862880e+01  9.99999999999890e-05  3.50000000000000e-01 -1.00000000000003e-04
 1.30000000137932e+01  9.99999999999890e-05  3.50000000000000e-01 -1.00000000000003e-04
 1.39999999840027e+01  9.99999999999890e-05  3.50000000000000e-01 -1.00000000000003e-04
 1.50000000115079e+01  9.99999999999890e-05  3.50000000000000e-01 -1.00000000000003e-04
 1.59999999817173e+01  1.00000000000211e-04  3.50000000000000e-01 -1.00000000000003e-04
 1.79999999794320e+01  9.99999999999890e-05  3.50000000000000e-01 -1.00000000000003e-04
 1.99999999771467e+01  9.99999999999890e-05  3.50000000000000e-01 -1.00000000000003e-04
 2.39999999725760e+01  9.99999999999890e-05  3.50000000000000e-01 -1.00000000000003e-04
 2.80000000253011e+01  9.99999999999890e-05  3.50000000000000e-01 -9.99999999999890e-05
 3.20000000207304e+01  9.99999999999890e-05  3.50000000000000e-01 -9.99999999999890e-05
 3.61428571302058e+01  9.99999999999890e-05  3.50000000000000e-01 -9.99999999999890e-05
 4.02857142969769e+01  9.99999999999890e-05  3.50000000000000e-01 -9.99999999999890e-05
 4.44285714064523e+01  9.99999999999890e-05  3.50000000000000e-01 -9.99999999999890e-05
 4.85714285732234e+01  9.99999999999890e-05  3.50000000000000e-01 -9.99999999999890e-05
 5.27142857399945e+01  9.99999999999890e-05  3.50000000000000e-01 -9.99999999999890e-05
 5.68571428494699e+01  9.99999999999890e-05  3.50000000000000e-01 -9.99999999999890e-05
 6.10000000162410e+01  9.99999999999890e-05  3.50000000000000e-01 -9.99999999999890e-05
 6.51428571257163e+01  9.99999999999890e-05  3.50000000000000e-01 -9.99999999999890e-05
 6.92857142924875e+01  9.99999999999890e-05  3.50000000000000e-01 -9.99999999999890e-05
 7.34285714019628e+01  9.99999999999890e-05  3.50000000000000e-01 -9.99999999999890e-05
 7.75714285687340e+01  9.99999999999890e-05  3.50000000000000e-01 -9.99999999999890e-05
 8.17142857355051e+01  9.99999999999890e-05  3.50000000000000e-01 -9.99999999999890e-05
 8.58571428449804e+01  1.00000000000003e-04  3.50000000000000e-01 -9.99999999999890e-05
 9.00000000117516e+01  9.99999999999994e-05  3.50000000000000e-01 -9.99999999999890e-05
 9.41428571212269e+01  1.00000000000003e-04  3.50000000000000e-01 -9.99999999999890e-05
 9.82857142879980e+01  9.99999999999890e-05  3.50000000000000e-01 -9.99999999999890e-05
 1.02428571454769e+02  9.99999999999890e-05  3.50000000000000e-01 -9.99999999999890e-05
 1.06571428564245e+02  9.99999999999890e-05  3.50000000000000e-01 -9.99999999999890e-05
 1.10714285731016e+02  9.99999999999890e-05  3.50000000000000e-01 -9.99999999999890e-05
 1.14857142840491e+02  9.99999999999890e-05  3.50000000000000e-01 -9.99999999999890e-05
 1.19000000007262e+02  9.99999999999890e-05  3.50000000000000e-01 -9.99999999999890e-05
 1.23142857116737e+02  9.99999999999890e-05  3.50000000000000e-01 -9.99999999999890e-05
 1.27285714283509e+02  9.99999999999335e-05  3.50000000000000e-01 -9.99999999999890e-05
 1.31428571450280e+02  9.99999999999890e-05  3.50000000000000e-01 -9.99999999999890e-05
 1.35571428559755e+02  9.99999999999890e-05  3.50000000000000e-01 -9.99999999999890e-05
 1.39714285726526e+02  9.99999999999335e-05  3.50000000000000e-01 -9.99999999999890e-05
 1.43857142836002e+02  9.99999999999335e-05  3.50000000000000e-01 -9.99999999999890e-05
 1.48000000002773e+02  9.99999999999890e-05  3.50000000000000e-01 -9.99999999999890e-05
 1.50285714285875e+02  9.99999999998780e-05  3.50000000000000e-01 -1.00000000000044e-04
 1.52571428568978e+02  9.99999999999890e-05  3.50000000000000e-01 -9.99999999999890e-05
 1.54857142852080e+02  9.99999999999890e-05  3.50000000000000e-01 -9.99999999999890e-05
 1.57142857135183e+02  9.99999999999890e-05  3.50000000000000e-01 -9.99999999999890e-05
 1.59428571418285e+02  9.99999999999890e-05  3.50000000000000e-01 -9.99999999999890e-05
 1.61714285701388e+02  9.99999999999890e-05  3.50000000000000e-01 -9.99999999999890e-05
 1.63999999984490e+02  9.99999999999890e-05  3.50000000000000e-01 -9.99999999999890e-05
 1.66285714267592e+02  9.99999999999890e-05  3.50000000000000e-01 -9.99999999999335e-05
 1.68571428550695e+02  9.99999999999890e-05  3.50000000000000e-01 -9.99999999999890e-05
 1.70857142833797e+02  9.99999999999890e-05  3.50000000000000e-01 -9.99999999999890e-05
 1.73142857116900e+02  9.99999999999890e-05  3.50000000000000e-01 -9.99999999999890e-05
 1.75428571400002e+02  9.99999999999890e-05  3.50000000000000e-01 -9.99999999999890e-05
 1.77714285740401e+02  1.00000000000003e-04  3.50000000000000e-01 -9.99999999999890e-05
 1.80000000000000e+02  9.99999999999994e-05  3.50000000000000e-01 -1.00000000000000e-04
END





% Airfoils that describe the blades
Airfoil_data
%  Alpha        Cl      Cd        Cm
%  (deg)        (-)     (-)       (-)
-1.80000000000000e+02  9.99999999999994e-05  3.50000000000000e-01 -1.00000000000000e-04
-1.77714285740401e+02  1.00000000000003e-04  3.50000000000000e-01 -1.00000000000003e-04
-1.75428571400002e+02  9.99999999999890e-05  3.50000000000000e-01 -9.99999999999890e-05
-1.73142857116900e+02  9.99999999999890e-05  3.50000000000000e-01 -9.99999999999890e-05
-1.70857160423602e+02  9.99999999999890e-05  3.50000000000000e-01 -9.99999999999890e-05
-1.68571631778825e+02  9.99999999999890e-05  3.50000000000000e-01 -9.99999999999890e-05
-1.66285714267592e+02  9.99999999999890e-05  3.50000000000000e-01 -9.99999999999890e-05
-1.63999999984490e+02  9.99999999999890e-05  3.50000000000000e-01 -9.99999999999890e-05
-1.61714472886699e+02  9.99999999999890e-05  3.50000000000000e-01 -9.99999999999890e-05
-1.59428371284127e+02  9.99999999999890e-05  3.50000000000000e-01 -9.99999999999890e-05
-1.57142842639350e+02  9.99999999999890e-05  3.50000000000000e-01 -9.99999999999890e-05
-1.54857313994574e+02  9.99999999999890e-05  3.50000000000000e-01 -9.99999999999890e-05
-1.52571428568978e+02  9.99999999999890e-05  3.50000000000000e-01 -9.99999999999890e-05
-1.50285714285875e+02  9.99999999999890e-05  3.50000000000000e-01 -9.99999999999890e-05
-1.48000000002773e+02  9.99999999999890e-05  3.50000000000000e-01 -9.99999999999890e-05
-1.43857142836002e+02  1.00000000000044e-04  3.50000000000000e-01 -9.99999999999890e-05
-1.39714285726526e+02  1.00000000000044e-04  3.50000000000000e-01 -9.99999999999890e-05
-1.35571428559755e+02  9.99999999999890e-05  3.50000000000000e-01 -9.99999999999890e-05
-1.31428571450280e+02  9.99999999999890e-05  3.50000000000000e-01 -9.99999999999890e-05
-1.27285714283509e+02  9.99999999999890e-05  3.50000000000000e-01 -9.99999999999890e-05
-1.23142857116737e+02  9.99999999999890e-05  3.50000000000000e-01 -9.99999999999890e-05
-1.19000000007262e+02  9.99999999999890e-05  3.50000000000000e-01 -9.99999999999890e-05
-1.14857142840491e+02  9.99999999999890e-05  3.50000000000000e-01 -9.99999999999890e-05
-1.10714285731016e+02  9.99999999999890e-05  3.50000000000000e-01 -9.99999999999890e-05
-1.06571428564245e+02  9.99999999999890e-05  3.50000000000000e-01 -9.99999999999890e-05
-1.02428571454769e+02  9.99999999999890e-05  3.50000000000000e-01 -9.99999999999890e-05
-9.82857142879980e+01  9.99999999999890e-05  3.50000000000000e-01 -9.99999999999890e-05
-9.41428571212269e+01  1.00000000000003e-04  3.50000000000000e-01 -9.99999999999890e-05
-9.00000000117516e+01  1.00000000000000e-04  3.50000000000000e-01 -9.99999999999890e-05
-8.58571428449804e+01  1.00000000000003e-04  3.50000000000000e-01 -9.99999999999890e-05
-8.17142857355051e+01  9.99999999999890e-05  3.50000000000000e-01 -9.99999999999890e-05
-7.75714285687340e+01  9.99999999999890e-05  3.50000000000000e-01 -9.99999999999890e-05
-7.34285714019628e+01  9.99999999999890e-05  3.50000000000000e-01 -9.99999999999890e-05
-6.92857142924875e+01  9.99999999999890e-05  3.50000000000000e-01 -9.99999999999890e-05
-6.51428571257163e+01  9.99999999999890e-05  3.50000000000000e-01 -9.99999999999890e-05
-6.10000000162410e+01  9.99999999999890e-05  3.50000000000000e-01 -9.99999999999890e-05
-5.68571428494699e+01  9.99999999999890e-05  3.50000000000000e-01 -1.00000000000003e-04
-5.27142857399945e+01  9.99999999999890e-05  3.50000000000000e-01 -1.00000000000003e-04
-4.85714285732234e+01  9.99999999999890e-05  3.50000000000000e-01 -1.00000000000003e-04
-4.44285714064523e+01  9.99999999999890e-05  3.50000000000000e-01 -1.00000000000003e-04
-4.02857142969769e+01  9.99999999999890e-05  3.50000000000000e-01 -1.00000000000003e-04
-3.61428571302058e+01  9.99999999999890e-05  3.50000000000000e-01 -1.00000000000003e-04
-3.20000000207304e+01  9.99999999999890e-05  3.50000000000000e-01 -1.00000000000003e-04
-2.80000000253011e+01  9.99999999999890e-05  3.50000000000000e-01 -1.00000000000003e-04
-2.39999999725760e+01  9.99999999999890e-05  3.50000000000000e-01 -9.99999999999994e-05
-1.99999999771467e+01  9.99999999999890e-05  3.50000000000000e-01 -1.00000000000000e-04
-1.79999999794320e+01  9.99999999999890e-05  3.50000000000000e-01 -9.99999999999994e-05
-1.59999999817173e+01  1.00000000000100e-04  3.50000000000000e-01 -9.99999999999994e-05
-1.39999999840027e+01  1.00000000000100e-04  3.50000000000000e-01 -9.99999999999994e-05
-1.19999999862880e+01  9.99999999999890e-05  3.50000000000000e-01 -9.99999999999994e-05
-9.99999998857333e+00  9.99999999999890e-05  3.50000000000000e-01 -9.99999999999994e-05
-7.99999999085867e+00  9.99999999999890e-05  3.50000000000000e-01 -1.00000000000003e-04
-5.99999999314400e+00  9.99999999999890e-05  3.50000000000000e-01 -1.00000000000003e-04
-3.99999999542933e+00  1.00000000000003e-04  3.50000000000000e-01 -1.00000000000003e-04
-1.99999999771467e+00  9.99999999999890e-05  3.50000000000000e-01 -1.00000000000003e-04
-1.00000002750522e+00  9.99999999999890e-05  3.50000000000000e-01 -1.00000000000003e-04
 0.00000000000000e+00  9.99999999999890e-05  3.50000000000000e-01 -1.00000000000003e-04
 1.00000002750522e+00  9.99999999999890e-05  3.50000000000000e-01 -1.00000000000003e-04
 1.99999999771467e+00  9.99999999999890e-05  3.50000000000000e-01 -1.00000000000003e-04
 3.00000002521989e+00  9.99999999999890e-05  3.50000000000000e-01 -1.00000000000003e-04
 3.99999999542933e+00  9.99999999999890e-05  3.50000000000000e-01 -1.00000000000003e-04
 5.00000002293456e+00  9.99999999999890e-05  3.50000000000000e-01 -1.00000000000003e-04
 5.99999999314400e+00  9.99999999999890e-05  3.50000000000000e-01 -1.00000000000003e-04
 7.00000002064922e+00  9.99999999999890e-05  3.50000000000000e-01 -1.00000000000003e-04
 7.99999999085867e+00  9.99999999999890e-05  3.50000000000000e-01 -9.99999999999890e-05
 9.00000001836389e+00  9.99999999999890e-05  3.50000000000000e-01 -9.99999999999890e-05
 9.99999998857333e+00  9.99999999999890e-05  3.50000000000000e-01 -9.99999999999890e-05
 1.10000000160786e+01  9.99999999999890e-05  3.50000000000000e-01 -1.00000000000003e-04
 1.19999999862880e+01  9.99999999999890e-05  3.50000000000000e-01 -1.00000000000003e-04
 1.30000000137932e+01  9.99999999999890e-05  3.50000000000000e-01 -1.00000000000003e-04
 1.39999999840027e+01  9.99999999999890e-05  3.50000000000000e-01 -1.00000000000003e-04
 1.50000000115079e+01  9.99999999999890e-05  3.50000000000000e-01 -1.00000000000003e-04
 1.59999999817173e+01  1.00000000000211e-04  3.50000000000000e-01 -1.00000000000003e-04
 1.79999999794320e+01  9.99999999999890e-05  3.50000000000000e-01 -1.00000000000003e-04
 1.99999999771467e+01  9.99999999999890e-05  3.50000000000000e-01 -1.00000000000003e-04
 2.39999999725760e+01  9.99999999999890e-05  3.50000000000000e-01 -1.00000000000003e-04
 2.80000000253011e+01  9.99999999999890e-05  3.50000000000000e-01 -9.99999999999890e-05
 3.20000000207304e+01  9.99999999999890e-05  3.50000000000000e-01 -9.99999999999890e-05
 3.61428571302058e+01  9.99999999999890e-05  3.50000000000000e-01 -9.99999999999890e-05
 4.02857142969769e+01  9.99999999999890e-05  3.50000000000000e-01 -9.99999999999890e-05
 4.44285714064523e+01  9.99999999999890e-05  3.50000000000000e-01 -9.99999999999890e-05
 4.85714285732234e+01  9.99999999999890e-05  3.50000000000000e-01 -9.99999999999890e-05
 5.27142857399945e+01  9.99999999999890e-05  3.50000000000000e-01 -9.99999999999890e-05
 5.68571428494699e+01  9.99999999999890e-05  3.50000000000000e-01 -9.99999999999890e-05
 6.10000000162410e+01  9.99999999999890e-05  3.50000000000000e-01 -9.99999999999890e-05
 6.51428571257163e+01  9.99999999999890e-05  3.50000000000000e-01 -9.99999999999890e-05
 6.92857142924875e+01  9.99999999999890e-05  3.50000000000000e-01 -9.99999999999890e-05
 7.34285714019628e+01  9.99999999999890e-05  3.50000000000000e-01 -9.99999999999890e-05
 7.75714285687340e+01  9.99999999999890e-05  3.50000000000000e-01 -9.99999999999890e-05
 8.17142857355051e+01  9.99999999999890e-05  3.50000000000000e-01 -9.99999999999890e-05
 8.58571428449804e+01  1.00000000000003e-04  3.50000000000000e-01 -9.99999999999890e-05
 9.00000000117516e+01  9.99999999999994e-05  3.50000000000000e-01 -9.99999999999890e-05
 9.41428571212269e+01  1.00000000000003e-04  3.50000000000000e-01 -9.99999999999890e-05
 9.82857142879980e+01  9.99999999999890e-05  3.50000000000000e-01 -9.99999999999890e-05